LAMMPS (15 Apr 2020)
units metal  # eV, angstroms, K, ...
dimension 3
boundary p p p
atom_style charge

lattice fcc 8 origin 0 0 0
Lattice spacing in x,y,z = 8 8 8
region box block 0 2 0 2 0 2
create_box	2 box
Created orthogonal box = (0 0 0) to (16 16 16)
create_atoms 1 box
Created 32 atoms

lattice fcc 8 origin 0.5 0 0
Lattice spacing in x,y,z = 8 8 8
create_atoms 2 box
Created 32 atoms

mass 1 20.1797
mass 2 131.293
set type 1 charge 0.0
  32 settings made for charge
set type 2 charge 0.0
  32 settings made for charge

pair_style	lj/cut 10
pair_coeff	1 1 0.003705453303 2.73 6   # Ne - Ne, r_cut = 6
pair_coeff	1 2 0.006323399148 3.472 8  # Ne - Xe, r_cut = 8
pair_coeff	2 2 0.02206037315 3.92 10   # Xe - Xe, r_cut = 10

variable mys equal step
variable myt equal temp
variable mye equal etotal
variable myp equal pe
variable myk equal ke
variable myl equal lx

# relax
thermo         0
thermo_style   custom pe
fix fix_1 all box/relax iso 0.0 vmax 0.001
min_style cg
minimize 1e-25 1e-25 5000 10000
  update every 1 steps, delay 0 steps, check yes
PotEng
  -3.2474568
  -4.4263984
Loop time of 0.014148 on 1 procs for 119 steps with 64 atoms

Minimization stats:
  Stopping criterion = energy tolerance
  Energy initial, next-to-last, final =
  Force two-norm initial, final = 12.883 3.89324e-14
  Force max component initial, final = 12.883 3.23802e-14
  Final line search alpha, max atom move = 1 3.23802e-14
  Iterations, force evaluations = 119 129

unfix fix_1
reset_timestep 0
velocity        all create 0.1 12345 rot no dist gaussian
thermo          1000
thermo_style   custom step temp press etotal pe
# per-atom energy
compute        ape all pe/atom
compute        pe all reduce sum c_ape
# custom dump
dump           1 all custom 1000 dump.lammpstrj id type x y z fx fy fz c_ape
dump_modify    1 format line "%d %d %20.10f %20.10f %20.10f %20.10f %20.10f %20.10f %20.10f"
timestep       0.001
# MD
fix fix_4 all nvt temp 0.1 500 0.1
run 100000
Step Temp Press TotEng PotEng
0          0.1   0.30073118    -4.425584   -4.4263984
Averages over the last 51 of 101 rows, steps 50000 to 100000:
Temp Press TotEng PotEng
374.21 6317.24 0.0617865 -2.98555
Loop time of 2.92933 on 1 procs for 100000 steps with 64 atoms

fix fix_4 all nvt temp 500 0.1 0.1
run 100000
Step Temp Press TotEng PotEng
100000    511.64093    8464.3656    1.7825879   -2.3839033
Averages over the last 51 of 101 rows, steps 150000 to 200000:
Temp Press TotEng PotEng
125.537 1650.06 -3.34586 -4.36815
Loop time of 2.94466 on 1 procs for 100000 steps with 64 atoms

fix fix_4 all nvt temp 0.1 500 0.1
run 100000
Step Temp Press TotEng PotEng
200000   0.65466432   -1496.3032   -5.2365214   -5.2418526
Averages over the last 51 of 101 rows, steps 250000 to 300000:
Temp Press TotEng PotEng
379.78 6334.29 0.143167 -2.94953
Loop time of 2.9524 on 1 procs for 100000 steps with 64 atoms

fix fix_4 all nvt temp 500 0.1 0.1
run 100000
Step Temp Press TotEng PotEng
300000    516.80021    9117.7661    2.0927734   -2.1157318
Averages over the last 51 of 101 rows, steps 350000 to 400000:
Temp Press TotEng PotEng
130.156 1690.25 -3.28835 -4.34826
Loop time of 2.9263 on 1 procs for 100000 steps with 64 atoms
