LAMMPS (15 Apr 2020)
units           metal
boundary        p p p

atom_style      atomic

lattice         bcc 3.206
Lattice spacing in x,y,z = 3.206 3.206 3.206
region          box block -2 2 -2 2 -2 2
create_box      1 box
Created orthogonal box = (-6.412 -6.412 -6.412) to (6.412 6.412 6.412)
create_atoms    1 region box
Created 128 atoms

mass            1  180.95

pair_style      table spline 25
pair_coeff      * * /home/sxiexie/PycharmProjects/tungsten/potentials/uf_w.table UF_W 5.5
Reading potential file /home/sxiexie/PycharmProjects/tungsten/potentials/uf_w.table with DATE: 10/06/2020
  Should only be flagged at inflection points (src/pair_table.cpp:483)
  over 1e-06 to re-computed values (src/pair_table.cpp:492)

timestep        0.01
thermo_style custom step temp pe press vol
compute peratom all pe/atom
compute pe all reduce sum c_peratom
dump fix_dump all custom 1000 test.lammpstrj id type x y z fx fy fz c_peratom

velocity        all create 600.0 4928459 dist gaussian
fix             1 all npt temp 300 300  0.1 iso 0 0 0.2
thermo          1000
run             3000
  update every 1 steps, delay 10 steps, check yes
Step Temp PotEng Press Volume
0          600    -477.7349   -91919.895    2108.9706
Loop time of 0.268722 on 1 procs for 3000 steps with 128 atoms

reset_timestep 0
velocity        all create 8000.0 4928459 dist gaussian
fix             1 all npt temp 4000 4000  0.1 iso 0 0 0.2
thermo          1000
run             3000
Step Temp PotEng Press Volume
0         8000   -418.58648   -190694.78    2399.8398
Loop time of 0.289219 on 1 procs for 3000 steps with 128 atoms
